
---------- Begin Simulation Statistics ----------
final_tick                               473007175000                       # Number of ticks from beginning of simulation (restored from checkpoints and never reset)
host_inst_rate                                 923276                       # Simulator instruction rate (inst/s)
host_mem_usage                                8724528                       # Number of bytes of host memory used
host_op_rate                                  1443400                       # Simulator op (including micro ops) rate (op/s)
host_seconds                                  1083.10                       # Real time elapsed on the host
host_tick_rate                              436716261                       # Simulator tick rate (ticks/s)
sim_freq                                 1000000000000                       # Frequency of simulated ticks
sim_insts                                  1000000001                       # Number of instructions simulated
sim_ops                                    1563345323                       # Number of ops (including micro ops) simulated
sim_seconds                                  0.473007                       # Number of seconds simulated
sim_ticks                                473007175000                       # Number of ticks simulated
system.cpu.BranchMispred                       989148                       # Number of branch mispredictions
system.cpu.Branches                         107636117                       # Number of branches fetched
system.cpu.committedInsts                  1000000001                       # Number of instructions committed
system.cpu.committedOps                    1563345323                       # Number of ops (including micro ops) committed
system.cpu.idle_fraction                            0                       # Percentage of idle cycles
system.cpu.not_idle_fraction                        1                       # Percentage of non-idle cycles
system.cpu.numCycles                       1891982169                       # number of cpu cycles simulated
system.cpu.numWorkItemsCompleted                    0                       # number of work items this cpu completed
system.cpu.numWorkItemsStarted                      0                       # number of work items this cpu started
system.cpu.num_busy_cycles                 1891982169                       # Number of busy cycles
system.cpu.num_cc_register_reads            818586264                       # number of times the CC registers were read
system.cpu.num_cc_register_writes           827370505                       # number of times the CC registers were written
system.cpu.num_conditional_control_insts     65307229                       # number of instructions that are conditional controls
system.cpu.num_fp_alu_accesses               65257111                       # Number of float alu accesses
system.cpu.num_fp_insts                      65257111                       # number of float instructions
system.cpu.num_fp_register_reads             68971842                       # number of times the floating registers were read
system.cpu.num_fp_register_writes            55442180                       # number of times the floating registers were written
system.cpu.num_func_calls                    39829261                       # number of times a function call or return occured
system.cpu.num_idle_cycles                          0                       # Number of idle cycles
system.cpu.num_int_alu_accesses            1503401933                       # Number of integer alu accesses
system.cpu.num_int_insts                   1503401933                       # number of integer instructions
system.cpu.num_int_register_reads          3399993801                       # number of times the integer registers were read
system.cpu.num_int_register_writes         1243427911                       # number of times the integer registers were written
system.cpu.num_load_insts                   299820127                       # Number of load instructions
system.cpu.num_mem_refs                     436976479                       # number of memory refs
system.cpu.num_store_insts                  137156352                       # Number of store instructions
system.cpu.num_vec_alu_accesses                     0                       # Number of vector alu accesses
system.cpu.num_vec_insts                            0                       # number of vector instructions
system.cpu.num_vec_register_reads                   0                       # number of times the vector registers were read
system.cpu.num_vec_register_writes                  0                       # number of times the vector registers were written
system.cpu.op_class::No_OpClass              22192769      1.42%      1.42% # Class of executed instruction
system.cpu.op_class::IntAlu                1053529249     67.38%     68.80% # Class of executed instruction
system.cpu.op_class::IntMult                   198410      0.01%     68.81% # Class of executed instruction
system.cpu.op_class::IntDiv                     93068      0.01%     68.82% # Class of executed instruction
system.cpu.op_class::FloatAdd                16812599      1.08%     69.89% # Class of executed instruction
system.cpu.op_class::FloatCmp                       0      0.00%     69.89% # Class of executed instruction
system.cpu.op_class::FloatCvt                    1696      0.00%     69.89% # Class of executed instruction
system.cpu.op_class::FloatMult                      0      0.00%     69.89% # Class of executed instruction
system.cpu.op_class::FloatMultAcc                   0      0.00%     69.89% # Class of executed instruction
system.cpu.op_class::FloatDiv                       0      0.00%     69.89% # Class of executed instruction
system.cpu.op_class::FloatMisc                      0      0.00%     69.89% # Class of executed instruction
system.cpu.op_class::FloatSqrt                      0      0.00%     69.89% # Class of executed instruction
system.cpu.op_class::SimdAdd                    12978      0.00%     69.89% # Class of executed instruction
system.cpu.op_class::SimdAddAcc                     0      0.00%     69.89% # Class of executed instruction
system.cpu.op_class::SimdAlu                    69688      0.00%     69.90% # Class of executed instruction
system.cpu.op_class::SimdCmp                       12      0.00%     69.90% # Class of executed instruction
system.cpu.op_class::SimdCvt                    19154      0.00%     69.90% # Class of executed instruction
system.cpu.op_class::SimdMisc                33608832      2.15%     72.05% # Class of executed instruction
system.cpu.op_class::SimdMult                       0      0.00%     72.05% # Class of executed instruction
system.cpu.op_class::SimdMultAcc                    0      0.00%     72.05% # Class of executed instruction
system.cpu.op_class::SimdShift                   8656      0.00%     72.05% # Class of executed instruction
system.cpu.op_class::SimdShiftAcc                   0      0.00%     72.05% # Class of executed instruction
system.cpu.op_class::SimdDiv                        0      0.00%     72.05% # Class of executed instruction
system.cpu.op_class::SimdSqrt                       0      0.00%     72.05% # Class of executed instruction
system.cpu.op_class::SimdFloatAdd                3243      0.00%     72.05% # Class of executed instruction
system.cpu.op_class::SimdFloatAlu                   0      0.00%     72.05% # Class of executed instruction
system.cpu.op_class::SimdFloatCmp                   0      0.00%     72.05% # Class of executed instruction
system.cpu.op_class::SimdFloatCvt               29341      0.00%     72.05% # Class of executed instruction
system.cpu.op_class::SimdFloatDiv                  81      0.00%     72.05% # Class of executed instruction
system.cpu.op_class::SimdFloatMisc                  0      0.00%     72.05% # Class of executed instruction
system.cpu.op_class::SimdFloatMult              11418      0.00%     72.05% # Class of executed instruction
system.cpu.op_class::SimdFloatMultAcc               0      0.00%     72.05% # Class of executed instruction
system.cpu.op_class::SimdFloatSqrt                  0      0.00%     72.05% # Class of executed instruction
system.cpu.op_class::SimdReduceAdd                  0      0.00%     72.05% # Class of executed instruction
system.cpu.op_class::SimdReduceAlu                  0      0.00%     72.05% # Class of executed instruction
system.cpu.op_class::SimdReduceCmp                  0      0.00%     72.05% # Class of executed instruction
system.cpu.op_class::SimdFloatReduceAdd             0      0.00%     72.05% # Class of executed instruction
system.cpu.op_class::SimdFloatReduceCmp             0      0.00%     72.05% # Class of executed instruction
system.cpu.op_class::SimdAes                        0      0.00%     72.05% # Class of executed instruction
system.cpu.op_class::SimdAesMix                     0      0.00%     72.05% # Class of executed instruction
system.cpu.op_class::SimdSha1Hash                   0      0.00%     72.05% # Class of executed instruction
system.cpu.op_class::SimdSha1Hash2                  0      0.00%     72.05% # Class of executed instruction
system.cpu.op_class::SimdSha256Hash                 0      0.00%     72.05% # Class of executed instruction
system.cpu.op_class::SimdSha256Hash2                0      0.00%     72.05% # Class of executed instruction
system.cpu.op_class::SimdShaSigma2                  0      0.00%     72.05% # Class of executed instruction
system.cpu.op_class::SimdShaSigma3                  0      0.00%     72.05% # Class of executed instruction
system.cpu.op_class::SimdPredAlu                    0      0.00%     72.05% # Class of executed instruction
system.cpu.op_class::MemRead                299146994     19.13%     91.18% # Class of executed instruction
system.cpu.op_class::MemWrite               127367898      8.15%     99.33% # Class of executed instruction
system.cpu.op_class::FloatMemRead              673133      0.04%     99.37% # Class of executed instruction
system.cpu.op_class::FloatMemWrite            9788454      0.63%    100.00% # Class of executed instruction
system.cpu.op_class::IprAccess                      0      0.00%    100.00% # Class of executed instruction
system.cpu.op_class::InstPrefetch                   0      0.00%    100.00% # Class of executed instruction
system.cpu.op_class::total                 1563567673                       # Class of executed instruction
system.cpu.predictedBranches                 75418147                       # Number of branches predicted as taken
system.cpu.workload.numSyscalls                   114                       # Number of system calls
system.l1_to_l2.snoop_filter.hit_multi_requests            0                       # Number of requests hitting in the snoop filter with multiple (>1) holders of the requested data.
system.l1_to_l2.snoop_filter.hit_multi_snoops            0                       # Number of snoops hitting in the snoop filter with multiple (>1) holders of the requested data.
system.l1_to_l2.snoop_filter.hit_single_requests       595980                       # Number of requests hitting in the snoop filter with a single holder of the requested data.
system.l1_to_l2.snoop_filter.hit_single_snoops       444950                       # Number of snoops hitting in the snoop filter with a single holder of the requested data.
system.l1_to_l2.snoop_filter.tot_requests      1192984                       # Total number of requests made to the snoop filter.
system.l1_to_l2.snoop_filter.tot_snoops        444950                       # Total number of snoops made to the snoop filter.
system.membus.snoop_filter.hit_multi_requests            0                       # Number of requests hitting in the snoop filter with multiple (>1) holders of the requested data.
system.membus.snoop_filter.hit_multi_snoops            0                       # Number of snoops hitting in the snoop filter with multiple (>1) holders of the requested data.
system.membus.snoop_filter.hit_single_requests       491814                       # Number of requests hitting in the snoop filter with a single holder of the requested data.
system.membus.snoop_filter.hit_single_snoops            0                       # Number of snoops hitting in the snoop filter with a single holder of the requested data.
system.membus.snoop_filter.tot_requests        988233                       # Total number of requests made to the snoop filter.
system.membus.snoop_filter.tot_snoops               0                       # Total number of snoops made to the snoop filter.
system.clk_domain.clock                           250                       # Clock period in ticks
system.clk_domain.voltage_domain.voltage            1                       # Voltage in Volts
system.cpu.branchPred.lookups               107636117                       # Number of BP lookups
system.cpu.branchPred.condPredicted          65307581                       # Number of conditional branches predicted
system.cpu.branchPred.condIncorrect            989148                       # Number of conditional branches incorrect
system.cpu.branchPred.BTBLookups             55511621                       # Number of BTB lookups
system.cpu.branchPred.BTBHits                55453161                       # Number of BTB hits
system.cpu.branchPred.BTBHitPct             99.894689                       # BTB Hit Percentage
system.cpu.branchPred.RASUsed                19914627                       # Number of times the RAS was used to get a target.
system.cpu.branchPred.RASIncorrect                 59                       # Number of incorrect RAS predictions.
system.cpu.branchPred.indirectLookups           52280                       # Number of indirect predictor lookups.
system.cpu.branchPred.indirectHits              50359                       # Number of indirect target hits.
system.cpu.branchPred.indirectMisses             1921                       # Number of indirect misses.
system.cpu.branchPred.indirectMispredicted         2121                       # Number of mispredicted indirect branches.
system.cpu.branchPred.loop_predictor.correct     50787460                       # Number of times the loop predictor is the provider and the prediction is correct
system.cpu.branchPred.loop_predictor.wrong     14520121                       # Number of times the loop predictor is the provider and the prediction is wrong
system.cpu.branchPred.tage.longestMatchProviderCorrect     34892895                       # Number of times TAGE Longest Match is the provider and the prediction is correct
system.cpu.branchPred.tage.altMatchProviderCorrect       165950                       # Number of times TAGE Alt Match is the provider and the prediction is correct
system.cpu.branchPred.tage.bimodalAltMatchProviderCorrect        21117                       # Number of times TAGE Alt Match is the bimodal and it is the provider and the prediction is correct
system.cpu.branchPred.tage.bimodalProviderCorrect      6623337                       # Number of times there are no hits on the TAGE tables and the bimodal prediction is correct
system.cpu.branchPred.tage.longestMatchProviderWrong       576558                       # Number of times TAGE Longest Match is the provider and the prediction is wrong
system.cpu.branchPred.tage.altMatchProviderWrong       100383                       # Number of times TAGE Alt Match is the provider and the prediction is wrong
system.cpu.branchPred.tage.bimodalAltMatchProviderWrong        11751                       # Number of times TAGE Alt Match is the bimodal and it is the provider and the prediction is wrong
system.cpu.branchPred.tage.bimodalProviderWrong       233007                       # Number of times there are no hits on the TAGE tables and the bimodal prediction is wrong
system.cpu.branchPred.tage.altMatchProviderWouldHaveHit       219382                       # Number of times TAGE Longest Match is the provider, the prediction is wrong and Alt Match prediction was correct
system.cpu.branchPred.tage.longestMatchProviderWouldHaveHit        67559                       # Number of times TAGE Alt Match is the provider, the prediction is wrong and Longest Match prediction was correct
system.cpu.branchPred.tage.longestMatchProvider::0            0                       # TAGE provider for longest match
system.cpu.branchPred.tage.longestMatchProvider::1      3807719                       # TAGE provider for longest match
system.cpu.branchPred.tage.longestMatchProvider::2      3893204                       # TAGE provider for longest match
system.cpu.branchPred.tage.longestMatchProvider::3      5515498                       # TAGE provider for longest match
system.cpu.branchPred.tage.longestMatchProvider::4      5394243                       # TAGE provider for longest match
system.cpu.branchPred.tage.longestMatchProvider::5      2025218                       # TAGE provider for longest match
system.cpu.branchPred.tage.longestMatchProvider::6      6160636                       # TAGE provider for longest match
system.cpu.branchPred.tage.longestMatchProvider::7      4840715                       # TAGE provider for longest match
system.cpu.branchPred.tage.longestMatchProvider::8      2058474                       # TAGE provider for longest match
system.cpu.branchPred.tage.longestMatchProvider::9       750010                       # TAGE provider for longest match
system.cpu.branchPred.tage.longestMatchProvider::10       949833                       # TAGE provider for longest match
system.cpu.branchPred.tage.longestMatchProvider::11       117991                       # TAGE provider for longest match
system.cpu.branchPred.tage.longestMatchProvider::12       222245                       # TAGE provider for longest match
system.cpu.branchPred.tage.altMatchProvider::0      5808363                       # TAGE provider for alt match
system.cpu.branchPred.tage.altMatchProvider::1      6011197                       # TAGE provider for alt match
system.cpu.branchPred.tage.altMatchProvider::2      4223665                       # TAGE provider for alt match
system.cpu.branchPred.tage.altMatchProvider::3      6616826                       # TAGE provider for alt match
system.cpu.branchPred.tage.altMatchProvider::4      2192244                       # TAGE provider for alt match
system.cpu.branchPred.tage.altMatchProvider::5      3549376                       # TAGE provider for alt match
system.cpu.branchPred.tage.altMatchProvider::6      3551141                       # TAGE provider for alt match
system.cpu.branchPred.tage.altMatchProvider::7      2521396                       # TAGE provider for alt match
system.cpu.branchPred.tage.altMatchProvider::8       876239                       # TAGE provider for alt match
system.cpu.branchPred.tage.altMatchProvider::9       157408                       # TAGE provider for alt match
system.cpu.branchPred.tage.altMatchProvider::10        82760                       # TAGE provider for alt match
system.cpu.branchPred.tage.altMatchProvider::11       145171                       # TAGE provider for alt match
system.cpu.branchPred.tage.altMatchProvider::12            0                       # TAGE provider for alt match
system.cpu.dtb.rdAccesses                   299831207                       # TLB accesses on read requests
system.cpu.dtb.wrAccesses                   137167995                       # TLB accesses on write requests
system.cpu.dtb.rdMisses                         14062                       # TLB misses on read requests
system.cpu.dtb.wrMisses                          9973                       # TLB misses on write requests
system.cpu.dtb.walker.power_state.pwrStateResidencyTicks::UNDEFINED 473007175000                       # Cumulative time (in ticks) in various power states
system.cpu.interrupts.clk_domain.clock           4000                       # Clock period in ticks
system.cpu.itb.rdAccesses                           0                       # TLB accesses on read requests
system.cpu.itb.wrAccesses                  1347108166                       # TLB accesses on write requests
system.cpu.itb.rdMisses                             0                       # TLB misses on read requests
system.cpu.itb.wrMisses                           693                       # TLB misses on write requests
system.cpu.itb.walker.power_state.pwrStateResidencyTicks::UNDEFINED 473007175000                       # Cumulative time (in ticks) in various power states
system.cpu.l1d.demand_hits::.cpu.data       436096004                       # number of demand (read+write) hits
system.cpu.l1d.demand_hits::total           436096004                       # number of demand (read+write) hits
system.cpu.l1d.overall_hits::.cpu.data      436183466                       # number of overall hits
system.cpu.l1d.overall_hits::total          436183466                       # number of overall hits
system.cpu.l1d.demand_misses::.cpu.data        571955                       # number of demand (read+write) misses
system.cpu.l1d.demand_misses::total            571955                       # number of demand (read+write) misses
system.cpu.l1d.overall_misses::.cpu.data       593365                       # number of overall misses
system.cpu.l1d.overall_misses::total           593365                       # number of overall misses
system.cpu.l1d.demand_miss_latency::.cpu.data  26954888750                       # number of demand (read+write) miss cycles
system.cpu.l1d.demand_miss_latency::total  26954888750                       # number of demand (read+write) miss cycles
system.cpu.l1d.overall_miss_latency::.cpu.data  26954888750                       # number of overall miss cycles
system.cpu.l1d.overall_miss_latency::total  26954888750                       # number of overall miss cycles
system.cpu.l1d.demand_accesses::.cpu.data    436667959                       # number of demand (read+write) accesses
system.cpu.l1d.demand_accesses::total       436667959                       # number of demand (read+write) accesses
system.cpu.l1d.overall_accesses::.cpu.data    436776831                       # number of overall (read+write) accesses
system.cpu.l1d.overall_accesses::total      436776831                       # number of overall (read+write) accesses
system.cpu.l1d.demand_miss_rate::.cpu.data     0.001310                       # miss rate for demand accesses
system.cpu.l1d.demand_miss_rate::total       0.001310                       # miss rate for demand accesses
system.cpu.l1d.overall_miss_rate::.cpu.data     0.001359                       # miss rate for overall accesses
system.cpu.l1d.overall_miss_rate::total      0.001359                       # miss rate for overall accesses
system.cpu.l1d.demand_avg_miss_latency::.cpu.data 47127.638975                       # average overall miss latency
system.cpu.l1d.demand_avg_miss_latency::total 47127.638975                       # average overall miss latency
system.cpu.l1d.overall_avg_miss_latency::.cpu.data 45427.163297                       # average overall miss latency
system.cpu.l1d.overall_avg_miss_latency::total 45427.163297                       # average overall miss latency
system.cpu.l1d.blocked_cycles::no_mshrs             0                       # number of cycles access was blocked
system.cpu.l1d.blocked_cycles::no_targets            0                       # number of cycles access was blocked
system.cpu.l1d.blocked::no_mshrs                    0                       # number of cycles access was blocked
system.cpu.l1d.blocked::no_targets                  0                       # number of cycles access was blocked
system.cpu.l1d.avg_blocked_cycles::no_mshrs          nan                       # average number of cycles each access was blocked
system.cpu.l1d.avg_blocked_cycles::no_targets          nan                       # average number of cycles each access was blocked
system.cpu.l1d.writebacks::.writebacks         403662                       # number of writebacks
system.cpu.l1d.writebacks::total               403662                       # number of writebacks
system.cpu.l1d.demand_mshr_hits::.cpu.data          383                       # number of demand (read+write) MSHR hits
system.cpu.l1d.demand_mshr_hits::total            383                       # number of demand (read+write) MSHR hits
system.cpu.l1d.overall_mshr_hits::.cpu.data          383                       # number of overall MSHR hits
system.cpu.l1d.overall_mshr_hits::total           383                       # number of overall MSHR hits
system.cpu.l1d.demand_mshr_misses::.cpu.data       571572                       # number of demand (read+write) MSHR misses
system.cpu.l1d.demand_mshr_misses::total       571572                       # number of demand (read+write) MSHR misses
system.cpu.l1d.overall_mshr_misses::.cpu.data       592056                       # number of overall MSHR misses
system.cpu.l1d.overall_mshr_misses::total       592056                       # number of overall MSHR misses
system.cpu.l1d.demand_mshr_miss_latency::.cpu.data  26801210500                       # number of demand (read+write) MSHR miss cycles
system.cpu.l1d.demand_mshr_miss_latency::total  26801210500                       # number of demand (read+write) MSHR miss cycles
system.cpu.l1d.overall_mshr_miss_latency::.cpu.data  27687554500                       # number of overall MSHR miss cycles
system.cpu.l1d.overall_mshr_miss_latency::total  27687554500                       # number of overall MSHR miss cycles
system.cpu.l1d.demand_mshr_miss_rate::.cpu.data     0.001309                       # mshr miss rate for demand accesses
system.cpu.l1d.demand_mshr_miss_rate::total     0.001309                       # mshr miss rate for demand accesses
system.cpu.l1d.overall_mshr_miss_rate::.cpu.data     0.001356                       # mshr miss rate for overall accesses
system.cpu.l1d.overall_mshr_miss_rate::total     0.001356                       # mshr miss rate for overall accesses
system.cpu.l1d.demand_avg_mshr_miss_latency::.cpu.data 46890.348897                       # average overall mshr miss latency
system.cpu.l1d.demand_avg_mshr_miss_latency::total 46890.348897                       # average overall mshr miss latency
system.cpu.l1d.overall_avg_mshr_miss_latency::.cpu.data 46765.094011                       # average overall mshr miss latency
system.cpu.l1d.overall_avg_mshr_miss_latency::total 46765.094011                       # average overall mshr miss latency
system.cpu.l1d.replacements                    591544                       # number of replacements
system.cpu.l1d.ReadReq_hits::.cpu.data      299516604                       # number of ReadReq hits
system.cpu.l1d.ReadReq_hits::total          299516604                       # number of ReadReq hits
system.cpu.l1d.ReadReq_misses::.cpu.data       205492                       # number of ReadReq misses
system.cpu.l1d.ReadReq_misses::total           205492                       # number of ReadReq misses
system.cpu.l1d.ReadReq_miss_latency::.cpu.data   7755586250                       # number of ReadReq miss cycles
system.cpu.l1d.ReadReq_miss_latency::total   7755586250                       # number of ReadReq miss cycles
system.cpu.l1d.ReadReq_accesses::.cpu.data    299722096                       # number of ReadReq accesses(hits+misses)
system.cpu.l1d.ReadReq_accesses::total      299722096                       # number of ReadReq accesses(hits+misses)
system.cpu.l1d.ReadReq_miss_rate::.cpu.data     0.000686                       # miss rate for ReadReq accesses
system.cpu.l1d.ReadReq_miss_rate::total      0.000686                       # miss rate for ReadReq accesses
system.cpu.l1d.ReadReq_avg_miss_latency::.cpu.data 37741.548333                       # average ReadReq miss latency
system.cpu.l1d.ReadReq_avg_miss_latency::total 37741.548333                       # average ReadReq miss latency
system.cpu.l1d.ReadReq_mshr_hits::.cpu.data          383                       # number of ReadReq MSHR hits
system.cpu.l1d.ReadReq_mshr_hits::total           383                       # number of ReadReq MSHR hits
system.cpu.l1d.ReadReq_mshr_misses::.cpu.data       205109                       # number of ReadReq MSHR misses
system.cpu.l1d.ReadReq_mshr_misses::total       205109                       # number of ReadReq MSHR misses
system.cpu.l1d.ReadReq_mshr_miss_latency::.cpu.data   7693523750                       # number of ReadReq MSHR miss cycles
system.cpu.l1d.ReadReq_mshr_miss_latency::total   7693523750                       # number of ReadReq MSHR miss cycles
system.cpu.l1d.ReadReq_mshr_miss_rate::.cpu.data     0.000684                       # mshr miss rate for ReadReq accesses
system.cpu.l1d.ReadReq_mshr_miss_rate::total     0.000684                       # mshr miss rate for ReadReq accesses
system.cpu.l1d.ReadReq_avg_mshr_miss_latency::.cpu.data 37509.440103                       # average ReadReq mshr miss latency
system.cpu.l1d.ReadReq_avg_mshr_miss_latency::total 37509.440103                       # average ReadReq mshr miss latency
system.cpu.l1d.WriteReq_hits::.cpu.data     136579400                       # number of WriteReq hits
system.cpu.l1d.WriteReq_hits::total         136579400                       # number of WriteReq hits
system.cpu.l1d.WriteReq_misses::.cpu.data       366463                       # number of WriteReq misses
system.cpu.l1d.WriteReq_misses::total          366463                       # number of WriteReq misses
system.cpu.l1d.WriteReq_miss_latency::.cpu.data  19199302500                       # number of WriteReq miss cycles
system.cpu.l1d.WriteReq_miss_latency::total  19199302500                       # number of WriteReq miss cycles
system.cpu.l1d.WriteReq_accesses::.cpu.data    136945863                       # number of WriteReq accesses(hits+misses)
system.cpu.l1d.WriteReq_accesses::total     136945863                       # number of WriteReq accesses(hits+misses)
system.cpu.l1d.WriteReq_miss_rate::.cpu.data     0.002676                       # miss rate for WriteReq accesses
system.cpu.l1d.WriteReq_miss_rate::total     0.002676                       # miss rate for WriteReq accesses
system.cpu.l1d.WriteReq_avg_miss_latency::.cpu.data 52390.834818                       # average WriteReq miss latency
system.cpu.l1d.WriteReq_avg_miss_latency::total 52390.834818                       # average WriteReq miss latency
system.cpu.l1d.WriteReq_mshr_misses::.cpu.data       366463                       # number of WriteReq MSHR misses
system.cpu.l1d.WriteReq_mshr_misses::total       366463                       # number of WriteReq MSHR misses
system.cpu.l1d.WriteReq_mshr_miss_latency::.cpu.data  19107686750                       # number of WriteReq MSHR miss cycles
system.cpu.l1d.WriteReq_mshr_miss_latency::total  19107686750                       # number of WriteReq MSHR miss cycles
system.cpu.l1d.WriteReq_mshr_miss_rate::.cpu.data     0.002676                       # mshr miss rate for WriteReq accesses
system.cpu.l1d.WriteReq_mshr_miss_rate::total     0.002676                       # mshr miss rate for WriteReq accesses
system.cpu.l1d.WriteReq_avg_mshr_miss_latency::.cpu.data 52140.834818                       # average WriteReq mshr miss latency
system.cpu.l1d.WriteReq_avg_mshr_miss_latency::total 52140.834818                       # average WriteReq mshr miss latency
system.cpu.l1d.SoftPFReq_hits::.cpu.data        87462                       # number of SoftPFReq hits
system.cpu.l1d.SoftPFReq_hits::total            87462                       # number of SoftPFReq hits
system.cpu.l1d.SoftPFReq_misses::.cpu.data        21410                       # number of SoftPFReq misses
system.cpu.l1d.SoftPFReq_misses::total          21410                       # number of SoftPFReq misses
system.cpu.l1d.SoftPFReq_accesses::.cpu.data       108872                       # number of SoftPFReq accesses(hits+misses)
system.cpu.l1d.SoftPFReq_accesses::total       108872                       # number of SoftPFReq accesses(hits+misses)
system.cpu.l1d.SoftPFReq_miss_rate::.cpu.data     0.196653                       # miss rate for SoftPFReq accesses
system.cpu.l1d.SoftPFReq_miss_rate::total     0.196653                       # miss rate for SoftPFReq accesses
system.cpu.l1d.SoftPFReq_mshr_misses::.cpu.data        20484                       # number of SoftPFReq MSHR misses
system.cpu.l1d.SoftPFReq_mshr_misses::total        20484                       # number of SoftPFReq MSHR misses
system.cpu.l1d.SoftPFReq_mshr_miss_latency::.cpu.data    886344000                       # number of SoftPFReq MSHR miss cycles
system.cpu.l1d.SoftPFReq_mshr_miss_latency::total    886344000                       # number of SoftPFReq MSHR miss cycles
system.cpu.l1d.SoftPFReq_mshr_miss_rate::.cpu.data     0.188148                       # mshr miss rate for SoftPFReq accesses
system.cpu.l1d.SoftPFReq_mshr_miss_rate::total     0.188148                       # mshr miss rate for SoftPFReq accesses
system.cpu.l1d.SoftPFReq_avg_mshr_miss_latency::.cpu.data 43270.064441                       # average SoftPFReq mshr miss latency
system.cpu.l1d.SoftPFReq_avg_mshr_miss_latency::total 43270.064441                       # average SoftPFReq mshr miss latency
system.cpu.l1d.power_state.pwrStateResidencyTicks::UNDEFINED 473007175000                       # Cumulative time (in ticks) in various power states
system.cpu.l1d.tags.tagsinuse              511.965323                       # Cycle average of tags in use
system.cpu.l1d.tags.total_refs              435529637                       # Total number of references to valid blocks.
system.cpu.l1d.tags.sampled_refs               591544                       # Sample count of references to valid blocks.
system.cpu.l1d.tags.avg_refs               736.259073                       # Average number of references to valid blocks.
system.cpu.l1d.tags.warmup_cycle               128250                       # Cycle when the warmup percentage was hit.
system.cpu.l1d.tags.occ_blocks::.cpu.data   511.965323                       # Average occupied blocks per requestor
system.cpu.l1d.tags.occ_percent::.cpu.data     0.999932                       # Average percentage of cache occupancy
system.cpu.l1d.tags.occ_percent::total       0.999932                       # Average percentage of cache occupancy
system.cpu.l1d.tags.occ_task_id_blocks::1024          512                       # Occupied blocks per task id
system.cpu.l1d.tags.age_task_id_blocks_1024::1           87                       # Occupied blocks per task id
system.cpu.l1d.tags.age_task_id_blocks_1024::2          369                       # Occupied blocks per task id
system.cpu.l1d.tags.age_task_id_blocks_1024::3           56                       # Occupied blocks per task id
system.cpu.l1d.tags.occ_task_id_percent::1024            1                       # Percentage of cache occupancy per task id
system.cpu.l1d.tags.tag_accesses           3494806704                       # Number of tag accesses
system.cpu.l1d.tags.data_accesses          3494806704                       # Number of data accesses
system.cpu.l1d.tags.power_state.pwrStateResidencyTicks::UNDEFINED 473007175000                       # Cumulative time (in ticks) in various power states
system.cpu.l1i.demand_hits::.cpu.inst      1347103074                       # number of demand (read+write) hits
system.cpu.l1i.demand_hits::total          1347103074                       # number of demand (read+write) hits
system.cpu.l1i.overall_hits::.cpu.inst     1347103074                       # number of overall hits
system.cpu.l1i.overall_hits::total         1347103074                       # number of overall hits
system.cpu.l1i.demand_misses::.cpu.inst          4948                       # number of demand (read+write) misses
system.cpu.l1i.demand_misses::total              4948                       # number of demand (read+write) misses
system.cpu.l1i.overall_misses::.cpu.inst         4948                       # number of overall misses
system.cpu.l1i.overall_misses::total             4948                       # number of overall misses
system.cpu.l1i.demand_miss_latency::.cpu.inst    256476750                       # number of demand (read+write) miss cycles
system.cpu.l1i.demand_miss_latency::total    256476750                       # number of demand (read+write) miss cycles
system.cpu.l1i.overall_miss_latency::.cpu.inst    256476750                       # number of overall miss cycles
system.cpu.l1i.overall_miss_latency::total    256476750                       # number of overall miss cycles
system.cpu.l1i.demand_accesses::.cpu.inst   1347108022                       # number of demand (read+write) accesses
system.cpu.l1i.demand_accesses::total      1347108022                       # number of demand (read+write) accesses
system.cpu.l1i.overall_accesses::.cpu.inst   1347108022                       # number of overall (read+write) accesses
system.cpu.l1i.overall_accesses::total     1347108022                       # number of overall (read+write) accesses
system.cpu.l1i.demand_miss_rate::.cpu.inst     0.000004                       # miss rate for demand accesses
system.cpu.l1i.demand_miss_rate::total       0.000004                       # miss rate for demand accesses
system.cpu.l1i.overall_miss_rate::.cpu.inst     0.000004                       # miss rate for overall accesses
system.cpu.l1i.overall_miss_rate::total      0.000004                       # miss rate for overall accesses
system.cpu.l1i.demand_avg_miss_latency::.cpu.inst 51834.428052                       # average overall miss latency
system.cpu.l1i.demand_avg_miss_latency::total 51834.428052                       # average overall miss latency
system.cpu.l1i.overall_avg_miss_latency::.cpu.inst 51834.428052                       # average overall miss latency
system.cpu.l1i.overall_avg_miss_latency::total 51834.428052                       # average overall miss latency
system.cpu.l1i.blocked_cycles::no_mshrs             0                       # number of cycles access was blocked
system.cpu.l1i.blocked_cycles::no_targets            0                       # number of cycles access was blocked
system.cpu.l1i.blocked::no_mshrs                    0                       # number of cycles access was blocked
system.cpu.l1i.blocked::no_targets                  0                       # number of cycles access was blocked
system.cpu.l1i.avg_blocked_cycles::no_mshrs          nan                       # average number of cycles each access was blocked
system.cpu.l1i.avg_blocked_cycles::no_targets          nan                       # average number of cycles each access was blocked
system.cpu.l1i.demand_mshr_misses::.cpu.inst         4948                       # number of demand (read+write) MSHR misses
system.cpu.l1i.demand_mshr_misses::total         4948                       # number of demand (read+write) MSHR misses
system.cpu.l1i.overall_mshr_misses::.cpu.inst         4948                       # number of overall MSHR misses
system.cpu.l1i.overall_mshr_misses::total         4948                       # number of overall MSHR misses
system.cpu.l1i.demand_mshr_miss_latency::.cpu.inst    255239750                       # number of demand (read+write) MSHR miss cycles
system.cpu.l1i.demand_mshr_miss_latency::total    255239750                       # number of demand (read+write) MSHR miss cycles
system.cpu.l1i.overall_mshr_miss_latency::.cpu.inst    255239750                       # number of overall MSHR miss cycles
system.cpu.l1i.overall_mshr_miss_latency::total    255239750                       # number of overall MSHR miss cycles
system.cpu.l1i.demand_mshr_miss_rate::.cpu.inst     0.000004                       # mshr miss rate for demand accesses
system.cpu.l1i.demand_mshr_miss_rate::total     0.000004                       # mshr miss rate for demand accesses
system.cpu.l1i.overall_mshr_miss_rate::.cpu.inst     0.000004                       # mshr miss rate for overall accesses
system.cpu.l1i.overall_mshr_miss_rate::total     0.000004                       # mshr miss rate for overall accesses
system.cpu.l1i.demand_avg_mshr_miss_latency::.cpu.inst 51584.428052                       # average overall mshr miss latency
system.cpu.l1i.demand_avg_mshr_miss_latency::total 51584.428052                       # average overall mshr miss latency
system.cpu.l1i.overall_avg_mshr_miss_latency::.cpu.inst 51584.428052                       # average overall mshr miss latency
system.cpu.l1i.overall_avg_mshr_miss_latency::total 51584.428052                       # average overall mshr miss latency
system.cpu.l1i.replacements                      4436                       # number of replacements
system.cpu.l1i.ReadReq_hits::.cpu.inst     1347103074                       # number of ReadReq hits
system.cpu.l1i.ReadReq_hits::total         1347103074                       # number of ReadReq hits
system.cpu.l1i.ReadReq_misses::.cpu.inst         4948                       # number of ReadReq misses
system.cpu.l1i.ReadReq_misses::total             4948                       # number of ReadReq misses
system.cpu.l1i.ReadReq_miss_latency::.cpu.inst    256476750                       # number of ReadReq miss cycles
system.cpu.l1i.ReadReq_miss_latency::total    256476750                       # number of ReadReq miss cycles
system.cpu.l1i.ReadReq_accesses::.cpu.inst   1347108022                       # number of ReadReq accesses(hits+misses)
system.cpu.l1i.ReadReq_accesses::total     1347108022                       # number of ReadReq accesses(hits+misses)
system.cpu.l1i.ReadReq_miss_rate::.cpu.inst     0.000004                       # miss rate for ReadReq accesses
system.cpu.l1i.ReadReq_miss_rate::total      0.000004                       # miss rate for ReadReq accesses
system.cpu.l1i.ReadReq_avg_miss_latency::.cpu.inst 51834.428052                       # average ReadReq miss latency
system.cpu.l1i.ReadReq_avg_miss_latency::total 51834.428052                       # average ReadReq miss latency
system.cpu.l1i.ReadReq_mshr_misses::.cpu.inst         4948                       # number of ReadReq MSHR misses
system.cpu.l1i.ReadReq_mshr_misses::total         4948                       # number of ReadReq MSHR misses
system.cpu.l1i.ReadReq_mshr_miss_latency::.cpu.inst    255239750                       # number of ReadReq MSHR miss cycles
system.cpu.l1i.ReadReq_mshr_miss_latency::total    255239750                       # number of ReadReq MSHR miss cycles
system.cpu.l1i.ReadReq_mshr_miss_rate::.cpu.inst     0.000004                       # mshr miss rate for ReadReq accesses
system.cpu.l1i.ReadReq_mshr_miss_rate::total     0.000004                       # mshr miss rate for ReadReq accesses
system.cpu.l1i.ReadReq_avg_mshr_miss_latency::.cpu.inst 51584.428052                       # average ReadReq mshr miss latency
system.cpu.l1i.ReadReq_avg_mshr_miss_latency::total 51584.428052                       # average ReadReq mshr miss latency
system.cpu.l1i.power_state.pwrStateResidencyTicks::UNDEFINED 473007175000                       # Cumulative time (in ticks) in various power states
system.cpu.l1i.tags.tagsinuse              511.950329                       # Cycle average of tags in use
system.cpu.l1i.tags.total_refs             1334159286                       # Total number of references to valid blocks.
system.cpu.l1i.tags.sampled_refs                 4436                       # Sample count of references to valid blocks.
system.cpu.l1i.tags.avg_refs             300757.278179                       # Average number of references to valid blocks.
system.cpu.l1i.tags.warmup_cycle                69250                       # Cycle when the warmup percentage was hit.
system.cpu.l1i.tags.occ_blocks::.cpu.inst   511.950329                       # Average occupied blocks per requestor
system.cpu.l1i.tags.occ_percent::.cpu.inst     0.999903                       # Average percentage of cache occupancy
system.cpu.l1i.tags.occ_percent::total       0.999903                       # Average percentage of cache occupancy
system.cpu.l1i.tags.occ_task_id_blocks::1024          512                       # Occupied blocks per task id
system.cpu.l1i.tags.age_task_id_blocks_1024::1            3                       # Occupied blocks per task id
system.cpu.l1i.tags.age_task_id_blocks_1024::2           51                       # Occupied blocks per task id
system.cpu.l1i.tags.age_task_id_blocks_1024::3          374                       # Occupied blocks per task id
system.cpu.l1i.tags.age_task_id_blocks_1024::4           84                       # Occupied blocks per task id
system.cpu.l1i.tags.occ_task_id_percent::1024            1                       # Percentage of cache occupancy per task id
system.cpu.l1i.tags.tag_accesses          10776869124                       # Number of tag accesses
system.cpu.l1i.tags.data_accesses         10776869124                       # Number of data accesses
system.cpu.l1i.tags.power_state.pwrStateResidencyTicks::UNDEFINED 473007175000                       # Cumulative time (in ticks) in various power states
system.cpu.power_state.pwrStateResidencyTicks::ON 473007175000                       # Cumulative time (in ticks) in various power states
system.cpu.thread_0.numInsts                        0                       # Number of Instructions committed
system.cpu.thread_0.numOps                          0                       # Number of Ops committed
system.cpu.thread_0.numMemRefs                      0                       # Number of Memory References
system.l1_to_l2.trans_dist::ReadResp           230541                       # Transaction distribution
system.l1_to_l2.trans_dist::WritebackDirty       751434                       # Transaction distribution
system.l1_to_l2.trans_dist::CleanEvict         641936                       # Transaction distribution
system.l1_to_l2.trans_dist::ReadExReq          366463                       # Transaction distribution
system.l1_to_l2.trans_dist::ReadExResp         366463                       # Transaction distribution
system.l1_to_l2.trans_dist::ReadSharedReq       230541                       # Transaction distribution
system.l1_to_l2.pkt_count_system.cpu.l1d.mem_side_port::system.l2cache.cpu_side_port      1775656                       # Packet count per connected requestor and responder (bytes)
system.l1_to_l2.pkt_count_system.cpu.l1i.mem_side_port::system.l2cache.cpu_side_port        14332                       # Packet count per connected requestor and responder (bytes)
system.l1_to_l2.pkt_count::total              1789988                       # Packet count per connected requestor and responder (bytes)
system.l1_to_l2.pkt_size_system.cpu.l1d.mem_side_port::system.l2cache.cpu_side_port     63725952                       # Cumulative packet size per connected requestor and responder (bytes)
system.l1_to_l2.pkt_size_system.cpu.l1i.mem_side_port::system.l2cache.cpu_side_port       316672                       # Cumulative packet size per connected requestor and responder (bytes)
system.l1_to_l2.pkt_size::total              64042624                       # Cumulative packet size per connected requestor and responder (bytes)
system.l1_to_l2.snoops                         797390                       # Total snoops (count)
system.l1_to_l2.snoopTraffic                 22257408                       # Total snoop traffic (bytes)
system.l1_to_l2.snoop_fanout::samples         1394394                       # Request fanout histogram
system.l1_to_l2.snoop_fanout::mean           0.319099                       # Request fanout histogram
system.l1_to_l2.snoop_fanout::stdev          0.466128                       # Request fanout histogram
system.l1_to_l2.snoop_fanout::underflows            0      0.00%      0.00% # Request fanout histogram
system.l1_to_l2.snoop_fanout::0                949444     68.09%     68.09% # Request fanout histogram
system.l1_to_l2.snoop_fanout::1                444950     31.91%    100.00% # Request fanout histogram
system.l1_to_l2.snoop_fanout::2                     0      0.00%    100.00% # Request fanout histogram
system.l1_to_l2.snoop_fanout::overflows             0      0.00%    100.00% # Request fanout histogram
system.l1_to_l2.snoop_fanout::min_value             0                       # Request fanout histogram
system.l1_to_l2.snoop_fanout::max_value             1                       # Request fanout histogram
system.l1_to_l2.snoop_fanout::total           1394394                       # Request fanout histogram
system.l1_to_l2.power_state.pwrStateResidencyTicks::UNDEFINED 473007175000                       # Cumulative time (in ticks) in various power states
system.l1_to_l2.reqLayer0.occupancy         399161500                       # Layer occupancy (ticks)
system.l1_to_l2.reqLayer0.utilization             0.1                       # Layer utilization (%)
system.l1_to_l2.respLayer0.occupancy        296028000                       # Layer occupancy (ticks)
system.l1_to_l2.respLayer0.utilization            0.1                       # Layer utilization (%)
system.l1_to_l2.respLayer1.occupancy          2474000                       # Layer occupancy (ticks)
system.l1_to_l2.respLayer1.utilization            0.0                       # Layer utilization (%)
system.l2cache.demand_hits::.cpu.inst             208                       # number of demand (read+write) hits
system.l2cache.demand_hits::.cpu.data          100377                       # number of demand (read+write) hits
system.l2cache.demand_hits::total              100585                       # number of demand (read+write) hits
system.l2cache.overall_hits::.cpu.inst            208                       # number of overall hits
system.l2cache.overall_hits::.cpu.data         100377                       # number of overall hits
system.l2cache.overall_hits::total             100585                       # number of overall hits
system.l2cache.demand_misses::.cpu.inst          4740                       # number of demand (read+write) misses
system.l2cache.demand_misses::.cpu.data        491679                       # number of demand (read+write) misses
system.l2cache.demand_misses::total            496419                       # number of demand (read+write) misses
system.l2cache.overall_misses::.cpu.inst         4740                       # number of overall misses
system.l2cache.overall_misses::.cpu.data       491679                       # number of overall misses
system.l2cache.overall_misses::total           496419                       # number of overall misses
system.l2cache.demand_miss_latency::.cpu.inst    252177250                       # number of demand (read+write) miss cycles
system.l2cache.demand_miss_latency::.cpu.data  27104740000                       # number of demand (read+write) miss cycles
system.l2cache.demand_miss_latency::total  27356917250                       # number of demand (read+write) miss cycles
system.l2cache.overall_miss_latency::.cpu.inst    252177250                       # number of overall miss cycles
system.l2cache.overall_miss_latency::.cpu.data  27104740000                       # number of overall miss cycles
system.l2cache.overall_miss_latency::total  27356917250                       # number of overall miss cycles
system.l2cache.demand_accesses::.cpu.inst         4948                       # number of demand (read+write) accesses
system.l2cache.demand_accesses::.cpu.data       592056                       # number of demand (read+write) accesses
system.l2cache.demand_accesses::total          597004                       # number of demand (read+write) accesses
system.l2cache.overall_accesses::.cpu.inst         4948                       # number of overall (read+write) accesses
system.l2cache.overall_accesses::.cpu.data       592056                       # number of overall (read+write) accesses
system.l2cache.overall_accesses::total         597004                       # number of overall (read+write) accesses
system.l2cache.demand_miss_rate::.cpu.inst     0.957963                       # miss rate for demand accesses
system.l2cache.demand_miss_rate::.cpu.data     0.830460                       # miss rate for demand accesses
system.l2cache.demand_miss_rate::total       0.831517                       # miss rate for demand accesses
system.l2cache.overall_miss_rate::.cpu.inst     0.957963                       # miss rate for overall accesses
system.l2cache.overall_miss_rate::.cpu.data     0.830460                       # miss rate for overall accesses
system.l2cache.overall_miss_rate::total      0.831517                       # miss rate for overall accesses
system.l2cache.demand_avg_miss_latency::.cpu.inst 53201.951477                       # average overall miss latency
system.l2cache.demand_avg_miss_latency::.cpu.data 55126.901901                       # average overall miss latency
system.l2cache.demand_avg_miss_latency::total 55108.521733                       # average overall miss latency
system.l2cache.overall_avg_miss_latency::.cpu.inst 53201.951477                       # average overall miss latency
system.l2cache.overall_avg_miss_latency::.cpu.data 55126.901901                       # average overall miss latency
system.l2cache.overall_avg_miss_latency::total 55108.521733                       # average overall miss latency
system.l2cache.blocked_cycles::no_mshrs             0                       # number of cycles access was blocked
system.l2cache.blocked_cycles::no_targets            0                       # number of cycles access was blocked
system.l2cache.blocked::no_mshrs                    0                       # number of cycles access was blocked
system.l2cache.blocked::no_targets                  0                       # number of cycles access was blocked
system.l2cache.avg_blocked_cycles::no_mshrs          nan                       # average number of cycles each access was blocked
system.l2cache.avg_blocked_cycles::no_targets          nan                       # average number of cycles each access was blocked
system.l2cache.writebacks::.writebacks         347772                       # number of writebacks
system.l2cache.writebacks::total               347772                       # number of writebacks
system.l2cache.demand_mshr_misses::.cpu.inst         4740                       # number of demand (read+write) MSHR misses
system.l2cache.demand_mshr_misses::.cpu.data       491679                       # number of demand (read+write) MSHR misses
system.l2cache.demand_mshr_misses::total       496419                       # number of demand (read+write) MSHR misses
system.l2cache.overall_mshr_misses::.cpu.inst         4740                       # number of overall MSHR misses
system.l2cache.overall_mshr_misses::.cpu.data       491679                       # number of overall MSHR misses
system.l2cache.overall_mshr_misses::total       496419                       # number of overall MSHR misses
system.l2cache.demand_mshr_miss_latency::.cpu.inst    250992250                       # number of demand (read+write) MSHR miss cycles
system.l2cache.demand_mshr_miss_latency::.cpu.data  26981820250                       # number of demand (read+write) MSHR miss cycles
system.l2cache.demand_mshr_miss_latency::total  27232812500                       # number of demand (read+write) MSHR miss cycles
system.l2cache.overall_mshr_miss_latency::.cpu.inst    250992250                       # number of overall MSHR miss cycles
system.l2cache.overall_mshr_miss_latency::.cpu.data  26981820250                       # number of overall MSHR miss cycles
system.l2cache.overall_mshr_miss_latency::total  27232812500                       # number of overall MSHR miss cycles
system.l2cache.demand_mshr_miss_rate::.cpu.inst     0.957963                       # mshr miss rate for demand accesses
system.l2cache.demand_mshr_miss_rate::.cpu.data     0.830460                       # mshr miss rate for demand accesses
system.l2cache.demand_mshr_miss_rate::total     0.831517                       # mshr miss rate for demand accesses
system.l2cache.overall_mshr_miss_rate::.cpu.inst     0.957963                       # mshr miss rate for overall accesses
system.l2cache.overall_mshr_miss_rate::.cpu.data     0.830460                       # mshr miss rate for overall accesses
system.l2cache.overall_mshr_miss_rate::total     0.831517                       # mshr miss rate for overall accesses
system.l2cache.demand_avg_mshr_miss_latency::.cpu.inst 52951.951477                       # average overall mshr miss latency
system.l2cache.demand_avg_mshr_miss_latency::.cpu.data 54876.901901                       # average overall mshr miss latency
system.l2cache.demand_avg_mshr_miss_latency::total 54858.521733                       # average overall mshr miss latency
system.l2cache.overall_avg_mshr_miss_latency::.cpu.inst 52951.951477                       # average overall mshr miss latency
system.l2cache.overall_avg_mshr_miss_latency::.cpu.data 54876.901901                       # average overall mshr miss latency
system.l2cache.overall_avg_mshr_miss_latency::total 54858.521733                       # average overall mshr miss latency
system.l2cache.replacements                    797390                       # number of replacements
system.l2cache.WritebackDirty_hits::.writebacks       403662                       # number of WritebackDirty hits
system.l2cache.WritebackDirty_hits::total       403662                       # number of WritebackDirty hits
system.l2cache.WritebackDirty_accesses::.writebacks       403662                       # number of WritebackDirty accesses(hits+misses)
system.l2cache.WritebackDirty_accesses::total       403662                       # number of WritebackDirty accesses(hits+misses)
system.l2cache.CleanEvict_mshr_misses::.writebacks       139374                       # number of CleanEvict MSHR misses
system.l2cache.CleanEvict_mshr_misses::total       139374                       # number of CleanEvict MSHR misses
system.l2cache.CleanEvict_mshr_miss_rate::.writebacks          inf                       # mshr miss rate for CleanEvict accesses
system.l2cache.CleanEvict_mshr_miss_rate::total          inf                       # mshr miss rate for CleanEvict accesses
system.l2cache.ReadExReq_hits::.cpu.data        21838                       # number of ReadExReq hits
system.l2cache.ReadExReq_hits::total            21838                       # number of ReadExReq hits
system.l2cache.ReadExReq_misses::.cpu.data       344625                       # number of ReadExReq misses
system.l2cache.ReadExReq_misses::total         344625                       # number of ReadExReq misses
system.l2cache.ReadExReq_miss_latency::.cpu.data  18854143000                       # number of ReadExReq miss cycles
system.l2cache.ReadExReq_miss_latency::total  18854143000                       # number of ReadExReq miss cycles
system.l2cache.ReadExReq_accesses::.cpu.data       366463                       # number of ReadExReq accesses(hits+misses)
system.l2cache.ReadExReq_accesses::total       366463                       # number of ReadExReq accesses(hits+misses)
system.l2cache.ReadExReq_miss_rate::.cpu.data     0.940409                       # miss rate for ReadExReq accesses
system.l2cache.ReadExReq_miss_rate::total     0.940409                       # miss rate for ReadExReq accesses
system.l2cache.ReadExReq_avg_miss_latency::.cpu.data 54709.156329                       # average ReadExReq miss latency
system.l2cache.ReadExReq_avg_miss_latency::total 54709.156329                       # average ReadExReq miss latency
system.l2cache.ReadExReq_mshr_misses::.cpu.data       344625                       # number of ReadExReq MSHR misses
system.l2cache.ReadExReq_mshr_misses::total       344625                       # number of ReadExReq MSHR misses
system.l2cache.ReadExReq_mshr_miss_latency::.cpu.data  18767986750                       # number of ReadExReq MSHR miss cycles
system.l2cache.ReadExReq_mshr_miss_latency::total  18767986750                       # number of ReadExReq MSHR miss cycles
system.l2cache.ReadExReq_mshr_miss_rate::.cpu.data     0.940409                       # mshr miss rate for ReadExReq accesses
system.l2cache.ReadExReq_mshr_miss_rate::total     0.940409                       # mshr miss rate for ReadExReq accesses
system.l2cache.ReadExReq_avg_mshr_miss_latency::.cpu.data 54459.156329                       # average ReadExReq mshr miss latency
system.l2cache.ReadExReq_avg_mshr_miss_latency::total 54459.156329                       # average ReadExReq mshr miss latency
system.l2cache.ReadSharedReq_hits::.cpu.inst          208                       # number of ReadSharedReq hits
system.l2cache.ReadSharedReq_hits::.cpu.data        78539                       # number of ReadSharedReq hits
system.l2cache.ReadSharedReq_hits::total        78747                       # number of ReadSharedReq hits
system.l2cache.ReadSharedReq_misses::.cpu.inst         4740                       # number of ReadSharedReq misses
system.l2cache.ReadSharedReq_misses::.cpu.data       147054                       # number of ReadSharedReq misses
system.l2cache.ReadSharedReq_misses::total       151794                       # number of ReadSharedReq misses
system.l2cache.ReadSharedReq_miss_latency::.cpu.inst    252177250                       # number of ReadSharedReq miss cycles
system.l2cache.ReadSharedReq_miss_latency::.cpu.data   8250597000                       # number of ReadSharedReq miss cycles
system.l2cache.ReadSharedReq_miss_latency::total   8502774250                       # number of ReadSharedReq miss cycles
system.l2cache.ReadSharedReq_accesses::.cpu.inst         4948                       # number of ReadSharedReq accesses(hits+misses)
system.l2cache.ReadSharedReq_accesses::.cpu.data       225593                       # number of ReadSharedReq accesses(hits+misses)
system.l2cache.ReadSharedReq_accesses::total       230541                       # number of ReadSharedReq accesses(hits+misses)
system.l2cache.ReadSharedReq_miss_rate::.cpu.inst     0.957963                       # miss rate for ReadSharedReq accesses
system.l2cache.ReadSharedReq_miss_rate::.cpu.data     0.651855                       # miss rate for ReadSharedReq accesses
system.l2cache.ReadSharedReq_miss_rate::total     0.658425                       # miss rate for ReadSharedReq accesses
system.l2cache.ReadSharedReq_avg_miss_latency::.cpu.inst 53201.951477                       # average ReadSharedReq miss latency
system.l2cache.ReadSharedReq_avg_miss_latency::.cpu.data 56105.899874                       # average ReadSharedReq miss latency
system.l2cache.ReadSharedReq_avg_miss_latency::total 56015.219640                       # average ReadSharedReq miss latency
system.l2cache.ReadSharedReq_mshr_misses::.cpu.inst         4740                       # number of ReadSharedReq MSHR misses
system.l2cache.ReadSharedReq_mshr_misses::.cpu.data       147054                       # number of ReadSharedReq MSHR misses
system.l2cache.ReadSharedReq_mshr_misses::total       151794                       # number of ReadSharedReq MSHR misses
system.l2cache.ReadSharedReq_mshr_miss_latency::.cpu.inst    250992250                       # number of ReadSharedReq MSHR miss cycles
system.l2cache.ReadSharedReq_mshr_miss_latency::.cpu.data   8213833500                       # number of ReadSharedReq MSHR miss cycles
system.l2cache.ReadSharedReq_mshr_miss_latency::total   8464825750                       # number of ReadSharedReq MSHR miss cycles
system.l2cache.ReadSharedReq_mshr_miss_rate::.cpu.inst     0.957963                       # mshr miss rate for ReadSharedReq accesses
system.l2cache.ReadSharedReq_mshr_miss_rate::.cpu.data     0.651855                       # mshr miss rate for ReadSharedReq accesses
system.l2cache.ReadSharedReq_mshr_miss_rate::total     0.658425                       # mshr miss rate for ReadSharedReq accesses
system.l2cache.ReadSharedReq_avg_mshr_miss_latency::.cpu.inst 52951.951477                       # average ReadSharedReq mshr miss latency
system.l2cache.ReadSharedReq_avg_mshr_miss_latency::.cpu.data 55855.899874                       # average ReadSharedReq mshr miss latency
system.l2cache.ReadSharedReq_avg_mshr_miss_latency::total 55765.219640                       # average ReadSharedReq mshr miss latency
system.l2cache.power_state.pwrStateResidencyTicks::UNDEFINED 473007175000                       # Cumulative time (in ticks) in various power states
system.l2cache.tags.tagsinuse             4094.682496                       # Cycle average of tags in use
system.l2cache.tags.total_refs                 968377                       # Total number of references to valid blocks.
system.l2cache.tags.sampled_refs               797390                       # Sample count of references to valid blocks.
system.l2cache.tags.avg_refs                 1.214433                       # Average number of references to valid blocks.
system.l2cache.tags.warmup_cycle                68750                       # Cycle when the warmup percentage was hit.
system.l2cache.tags.occ_blocks::.writebacks   471.428441                       # Average occupied blocks per requestor
system.l2cache.tags.occ_blocks::.cpu.inst    10.468378                       # Average occupied blocks per requestor
system.l2cache.tags.occ_blocks::.cpu.data  3612.785677                       # Average occupied blocks per requestor
system.l2cache.tags.occ_percent::.writebacks     0.115095                       # Average percentage of cache occupancy
system.l2cache.tags.occ_percent::.cpu.inst     0.002556                       # Average percentage of cache occupancy
system.l2cache.tags.occ_percent::.cpu.data     0.882028                       # Average percentage of cache occupancy
system.l2cache.tags.occ_percent::total       0.999678                       # Average percentage of cache occupancy
system.l2cache.tags.occ_task_id_blocks::1024         4096                       # Occupied blocks per task id
system.l2cache.tags.age_task_id_blocks_1024::1           13                       # Occupied blocks per task id
system.l2cache.tags.age_task_id_blocks_1024::2          146                       # Occupied blocks per task id
system.l2cache.tags.age_task_id_blocks_1024::3         1009                       # Occupied blocks per task id
system.l2cache.tags.age_task_id_blocks_1024::4         2928                       # Occupied blocks per task id
system.l2cache.tags.occ_task_id_percent::1024            1                       # Percentage of cache occupancy per task id
system.l2cache.tags.tag_accesses             19889230                       # Number of tag accesses
system.l2cache.tags.data_accesses            19889230                       # Number of data accesses
system.l2cache.tags.power_state.pwrStateResidencyTicks::UNDEFINED 473007175000                       # Cumulative time (in ticks) in various power states
system.mem_ctrl.avgPriority_.writebacks::samples    347700.00                       # Average QoS priority value for accepted requests
system.mem_ctrl.avgPriority_.cpu.inst::samples      4740.00                       # Average QoS priority value for accepted requests
system.mem_ctrl.avgPriority_.cpu.data::samples    491020.00                       # Average QoS priority value for accepted requests
system.mem_ctrl.priorityMinLatency       0.000000018750                       # per QoS priority minimum request to response latency (s)
system.mem_ctrl.priorityMaxLatency       0.005347229750                       # per QoS priority maximum request to response latency (s)
system.mem_ctrl.numReadWriteTurnArounds         21470                       # Number of turnarounds from READ to WRITE
system.mem_ctrl.numWriteReadTurnArounds         21470                       # Number of turnarounds from WRITE to READ
system.mem_ctrl.numStayReadState              1437203                       # Number of times bus staying in READ state
system.mem_ctrl.numStayWriteState              326638                       # Number of times bus staying in WRITE state
system.mem_ctrl.readReqs                       496419                       # Number of read requests accepted
system.mem_ctrl.writeReqs                      347772                       # Number of write requests accepted
system.mem_ctrl.readBursts                     496419                       # Number of controller read bursts, including those serviced by the write queue
system.mem_ctrl.writeBursts                    347772                       # Number of controller write bursts, including those merged in the write queue
system.mem_ctrl.servicedByWrQ                     659                       # Number of controller read bursts serviced by the write queue
system.mem_ctrl.mergedWrBursts                     72                       # Number of controller write bursts merged with an existing one
system.mem_ctrl.neitherReadNorWriteReqs             0                       # Number of requests that are neither read nor write
system.mem_ctrl.avgRdQLen                        1.00                       # Average read queue length when enqueuing
system.mem_ctrl.avgWrQLen                       25.03                       # Average write queue length when enqueuing
system.mem_ctrl.numRdRetry                          0                       # Number of times read queue was full causing retry
system.mem_ctrl.numWrRetry                          0                       # Number of times write queue was full causing retry
system.mem_ctrl.readPktSize::0                      0                       # Read request sizes (log2)
system.mem_ctrl.readPktSize::1                      0                       # Read request sizes (log2)
system.mem_ctrl.readPktSize::2                      0                       # Read request sizes (log2)
system.mem_ctrl.readPktSize::3                      0                       # Read request sizes (log2)
system.mem_ctrl.readPktSize::4                      0                       # Read request sizes (log2)
system.mem_ctrl.readPktSize::5                      0                       # Read request sizes (log2)
system.mem_ctrl.readPktSize::6                 496419                       # Read request sizes (log2)
system.mem_ctrl.writePktSize::0                     0                       # Write request sizes (log2)
system.mem_ctrl.writePktSize::1                     0                       # Write request sizes (log2)
system.mem_ctrl.writePktSize::2                     0                       # Write request sizes (log2)
system.mem_ctrl.writePktSize::3                     0                       # Write request sizes (log2)
system.mem_ctrl.writePktSize::4                     0                       # Write request sizes (log2)
system.mem_ctrl.writePktSize::5                     0                       # Write request sizes (log2)
system.mem_ctrl.writePktSize::6                347772                       # Write request sizes (log2)
system.mem_ctrl.rdQLenPdf::0                   479619                       # What read queue length does an incoming req see
system.mem_ctrl.rdQLenPdf::1                    15090                       # What read queue length does an incoming req see
system.mem_ctrl.rdQLenPdf::2                     1044                       # What read queue length does an incoming req see
system.mem_ctrl.rdQLenPdf::3                        7                       # What read queue length does an incoming req see
system.mem_ctrl.rdQLenPdf::4                        0                       # What read queue length does an incoming req see
system.mem_ctrl.rdQLenPdf::5                        0                       # What read queue length does an incoming req see
system.mem_ctrl.rdQLenPdf::6                        0                       # What read queue length does an incoming req see
system.mem_ctrl.rdQLenPdf::7                        0                       # What read queue length does an incoming req see
system.mem_ctrl.rdQLenPdf::8                        0                       # What read queue length does an incoming req see
system.mem_ctrl.rdQLenPdf::9                        0                       # What read queue length does an incoming req see
system.mem_ctrl.rdQLenPdf::10                       0                       # What read queue length does an incoming req see
system.mem_ctrl.rdQLenPdf::11                       0                       # What read queue length does an incoming req see
system.mem_ctrl.rdQLenPdf::12                       0                       # What read queue length does an incoming req see
system.mem_ctrl.rdQLenPdf::13                       0                       # What read queue length does an incoming req see
system.mem_ctrl.rdQLenPdf::14                       0                       # What read queue length does an incoming req see
system.mem_ctrl.rdQLenPdf::15                       0                       # What read queue length does an incoming req see
system.mem_ctrl.rdQLenPdf::16                       0                       # What read queue length does an incoming req see
system.mem_ctrl.rdQLenPdf::17                       0                       # What read queue length does an incoming req see
system.mem_ctrl.rdQLenPdf::18                       0                       # What read queue length does an incoming req see
system.mem_ctrl.rdQLenPdf::19                       0                       # What read queue length does an incoming req see
system.mem_ctrl.rdQLenPdf::20                       0                       # What read queue length does an incoming req see
system.mem_ctrl.rdQLenPdf::21                       0                       # What read queue length does an incoming req see
system.mem_ctrl.rdQLenPdf::22                       0                       # What read queue length does an incoming req see
system.mem_ctrl.rdQLenPdf::23                       0                       # What read queue length does an incoming req see
system.mem_ctrl.rdQLenPdf::24                       0                       # What read queue length does an incoming req see
system.mem_ctrl.rdQLenPdf::25                       0                       # What read queue length does an incoming req see
system.mem_ctrl.rdQLenPdf::26                       0                       # What read queue length does an incoming req see
system.mem_ctrl.rdQLenPdf::27                       0                       # What read queue length does an incoming req see
system.mem_ctrl.rdQLenPdf::28                       0                       # What read queue length does an incoming req see
system.mem_ctrl.rdQLenPdf::29                       0                       # What read queue length does an incoming req see
system.mem_ctrl.rdQLenPdf::30                       0                       # What read queue length does an incoming req see
system.mem_ctrl.rdQLenPdf::31                       0                       # What read queue length does an incoming req see
system.mem_ctrl.wrQLenPdf::0                        1                       # What write queue length does an incoming req see
system.mem_ctrl.wrQLenPdf::1                        1                       # What write queue length does an incoming req see
system.mem_ctrl.wrQLenPdf::2                        1                       # What write queue length does an incoming req see
system.mem_ctrl.wrQLenPdf::3                        1                       # What write queue length does an incoming req see
system.mem_ctrl.wrQLenPdf::4                        1                       # What write queue length does an incoming req see
system.mem_ctrl.wrQLenPdf::5                        1                       # What write queue length does an incoming req see
system.mem_ctrl.wrQLenPdf::6                        1                       # What write queue length does an incoming req see
system.mem_ctrl.wrQLenPdf::7                        1                       # What write queue length does an incoming req see
system.mem_ctrl.wrQLenPdf::8                        1                       # What write queue length does an incoming req see
system.mem_ctrl.wrQLenPdf::9                        1                       # What write queue length does an incoming req see
system.mem_ctrl.wrQLenPdf::10                       1                       # What write queue length does an incoming req see
system.mem_ctrl.wrQLenPdf::11                       1                       # What write queue length does an incoming req see
system.mem_ctrl.wrQLenPdf::12                       1                       # What write queue length does an incoming req see
system.mem_ctrl.wrQLenPdf::13                       1                       # What write queue length does an incoming req see
system.mem_ctrl.wrQLenPdf::14                       1                       # What write queue length does an incoming req see
system.mem_ctrl.wrQLenPdf::15                    1978                       # What write queue length does an incoming req see
system.mem_ctrl.wrQLenPdf::16                    2004                       # What write queue length does an incoming req see
system.mem_ctrl.wrQLenPdf::17                   19899                       # What write queue length does an incoming req see
system.mem_ctrl.wrQLenPdf::18                   21383                       # What write queue length does an incoming req see
system.mem_ctrl.wrQLenPdf::19                   21489                       # What write queue length does an incoming req see
system.mem_ctrl.wrQLenPdf::20                   21704                       # What write queue length does an incoming req see
system.mem_ctrl.wrQLenPdf::21                   21574                       # What write queue length does an incoming req see
system.mem_ctrl.wrQLenPdf::22                   21498                       # What write queue length does an incoming req see
system.mem_ctrl.wrQLenPdf::23                   21485                       # What write queue length does an incoming req see
system.mem_ctrl.wrQLenPdf::24                   21501                       # What write queue length does an incoming req see
system.mem_ctrl.wrQLenPdf::25                   21547                       # What write queue length does an incoming req see
system.mem_ctrl.wrQLenPdf::26                   22120                       # What write queue length does an incoming req see
system.mem_ctrl.wrQLenPdf::27                   21611                       # What write queue length does an incoming req see
system.mem_ctrl.wrQLenPdf::28                   21621                       # What write queue length does an incoming req see
system.mem_ctrl.wrQLenPdf::29                   21741                       # What write queue length does an incoming req see
system.mem_ctrl.wrQLenPdf::30                   21561                       # What write queue length does an incoming req see
system.mem_ctrl.wrQLenPdf::31                   21474                       # What write queue length does an incoming req see
system.mem_ctrl.wrQLenPdf::32                   21473                       # What write queue length does an incoming req see
system.mem_ctrl.wrQLenPdf::33                      12                       # What write queue length does an incoming req see
system.mem_ctrl.wrQLenPdf::34                       2                       # What write queue length does an incoming req see
[...]
system.mem_ctrl.requestorReadRate::.cpu.data 66437216.306496828794                       # Per-requestor bytes read from memory rate (Bytes/sec)
system.mem_ctrl.requestorWriteRate::.writebacks 47045375.157364152372                       # Per-requestor bytes write to memory rate (Bytes/sec)
system.mem_ctrl.requestorReadAccesses::.cpu.inst         4740                       # Per-requestor read serviced memory accesses
system.mem_ctrl.requestorReadAccesses::.cpu.data       491679                       # Per-requestor read serviced memory accesses
system.mem_ctrl.requestorWriteAccesses::.writebacks       347772                       # Per-requestor write serviced memory accesses
system.mem_ctrl.requestorReadTotalLat::.cpu.inst    131307000                       # Per-requestor read total memory access latency
system.mem_ctrl.requestorReadTotalLat::.cpu.data  14573441750                       # Per-requestor read total memory access latency
system.mem_ctrl.requestorWriteTotalLat::.writebacks 11066113546250                       # Per-requestor write total memory access latency
system.mem_ctrl.requestorReadAvgLat::.cpu.inst     27701.90                       # Per-requestor read average memory access latency
system.mem_ctrl.requestorReadAvgLat::.cpu.data     29640.15                       # Per-requestor read average memory access latency
system.mem_ctrl.requestorWriteAvgLat::.writebacks  31820024.46                       # Per-requestor write average memory access latency
system.mem_ctrl.dram.bytes_read::.cpu.inst       303360                       # Number of bytes read from this memory
system.mem_ctrl.dram.bytes_read::.cpu.data     31467456                       # Number of bytes read from this memory
system.mem_ctrl.dram.bytes_read::total       31770816                       # Number of bytes read from this memory
system.mem_ctrl.dram.bytes_inst_read::.cpu.inst       303360                       # Number of instructions bytes read from this memory
system.mem_ctrl.dram.bytes_inst_read::total       303360                       # Number of instructions bytes read from this memory
system.mem_ctrl.dram.bytes_written::.writebacks     22257408                       # Number of bytes written to this memory
system.mem_ctrl.dram.bytes_written::total     22257408                       # Number of bytes written to this memory
system.mem_ctrl.dram.num_reads::.cpu.inst         4740                       # Number of read requests responded to by this memory
system.mem_ctrl.dram.num_reads::.cpu.data       491679                       # Number of read requests responded to by this memory
system.mem_ctrl.dram.num_reads::total          496419                       # Number of read requests responded to by this memory
system.mem_ctrl.dram.num_writes::.writebacks       347772                       # Number of write requests responded to by this memory
system.mem_ctrl.dram.num_writes::total         347772                       # Number of write requests responded to by this memory
system.mem_ctrl.dram.bw_read::.cpu.inst        641343                       # Total read bandwidth from this memory (bytes/s)
system.mem_ctrl.dram.bw_read::.cpu.data      66526382                       # Total read bandwidth from this memory (bytes/s)
system.mem_ctrl.dram.bw_read::total          67167725                       # Total read bandwidth from this memory (bytes/s)
system.mem_ctrl.dram.bw_inst_read::.cpu.inst       641343                       # Instruction read bandwidth from this memory (bytes/s)
system.mem_ctrl.dram.bw_inst_read::total       641343                       # Instruction read bandwidth from this memory (bytes/s)
system.mem_ctrl.dram.bw_write::.writebacks     47055117                       # Write bandwidth from this memory (bytes/s)
system.mem_ctrl.dram.bw_write::total         47055117                       # Write bandwidth from this memory (bytes/s)
system.mem_ctrl.dram.bw_total::.writebacks     47055117                       # Total bandwidth to/from this memory (bytes/s)
system.mem_ctrl.dram.bw_total::.cpu.inst       641343                       # Total bandwidth to/from this memory (bytes/s)
system.mem_ctrl.dram.bw_total::.cpu.data     66526382                       # Total bandwidth to/from this memory (bytes/s)
system.mem_ctrl.dram.bw_total::total        114222842                       # Total bandwidth to/from this memory (bytes/s)
system.mem_ctrl.dram.readBursts                495760                       # Number of DRAM read bursts
system.mem_ctrl.dram.writeBursts               347700                       # Number of DRAM write bursts
system.mem_ctrl.dram.perBankRdBursts::0         33322                       # Per bank write bursts
system.mem_ctrl.dram.perBankRdBursts::1         31608                       # Per bank write bursts
system.mem_ctrl.dram.perBankRdBursts::2         30833                       # Per bank write bursts
system.mem_ctrl.dram.perBankRdBursts::3         31880                       # Per bank write bursts
system.mem_ctrl.dram.perBankRdBursts::4         31350                       # Per bank write bursts
system.mem_ctrl.dram.perBankRdBursts::5         31386                       # Per bank write bursts
system.mem_ctrl.dram.perBankRdBursts::6         29505                       # Per bank write bursts
system.mem_ctrl.dram.perBankRdBursts::7         29759                       # Per bank write bursts
system.mem_ctrl.dram.perBankRdBursts::8         29731                       # Per bank write bursts
system.mem_ctrl.dram.perBankRdBursts::9         30581                       # Per bank write bursts
system.mem_ctrl.dram.perBankRdBursts::10        30482                       # Per bank write bursts
system.mem_ctrl.dram.perBankRdBursts::11        31166                       # Per bank write bursts
system.mem_ctrl.dram.perBankRdBursts::12        31083                       # Per bank write bursts
system.mem_ctrl.dram.perBankRdBursts::13        31372                       # Per bank write bursts
system.mem_ctrl.dram.perBankRdBursts::14        31697                       # Per bank write bursts
system.mem_ctrl.dram.perBankRdBursts::15        30005                       # Per bank write bursts
system.mem_ctrl.dram.perBankWrBursts::0         21967                       # Per bank write bursts
system.mem_ctrl.dram.perBankWrBursts::1         22195                       # Per bank write bursts
system.mem_ctrl.dram.perBankWrBursts::2         21551                       # Per bank write bursts
system.mem_ctrl.dram.perBankWrBursts::3         21966                       # Per bank write bursts
system.mem_ctrl.dram.perBankWrBursts::4         21601                       # Per bank write bursts
system.mem_ctrl.dram.perBankWrBursts::5         21727                       # Per bank write bursts
system.mem_ctrl.dram.perBankWrBursts::6         21099                       # Per bank write bursts
system.mem_ctrl.dram.perBankWrBursts::7         21542                       # Per bank write bursts
system.mem_ctrl.dram.perBankWrBursts::8         21259                       # Per bank write bursts
system.mem_ctrl.dram.perBankWrBursts::9         21939                       # Per bank write bursts
system.mem_ctrl.dram.perBankWrBursts::10        21819                       # Per bank write bursts
system.mem_ctrl.dram.perBankWrBursts::11        22182                       # Per bank write bursts
system.mem_ctrl.dram.perBankWrBursts::12        21693                       # Per bank write bursts
system.mem_ctrl.dram.perBankWrBursts::13        21879                       # Per bank write bursts
system.mem_ctrl.dram.perBankWrBursts::14        21845                       # Per bank write bursts
system.mem_ctrl.dram.perBankWrBursts::15        21436                       # Per bank write bursts
system.mem_ctrl.dram.totQLat               5409248750                       # Total ticks spent queuing
system.mem_ctrl.dram.totBusLat             2478800000                       # Total ticks spent in databus transfers
system.mem_ctrl.dram.totMemAccLat         14704748750                       # Total ticks spent from burst creation until serviced by the DRAM
system.mem_ctrl.dram.avgQLat                 10911.02                       # Average queueing delay per DRAM burst
system.mem_ctrl.dram.avgBusLat                5000.00                       # Average bus latency per DRAM burst
system.mem_ctrl.dram.avgMemAccLat            29661.02                       # Average memory access latency per DRAM burst
system.mem_ctrl.dram.readRowHits               380465                       # Number of row buffer hits during reads
system.mem_ctrl.dram.writeRowHits              296292                       # Number of row buffer hits during writes
system.mem_ctrl.dram.readRowHitRate             76.74                       # Row buffer hit rate for reads
system.mem_ctrl.dram.writeRowHitRate            85.21                       # Row buffer hit rate for writes
system.mem_ctrl.dram.bytesPerActivate::samples       166703                       # Bytes accessed per row activation
system.mem_ctrl.dram.bytesPerActivate::mean   323.818048                       # Bytes accessed per row activation
system.mem_ctrl.dram.bytesPerActivate::gmean   160.193876                       # Bytes accessed per row activation
system.mem_ctrl.dram.bytesPerActivate::stdev   381.529397                       # Bytes accessed per row activation
system.mem_ctrl.dram.bytesPerActivate::0-127        92277     55.35%     55.35% # Bytes accessed per row activation
system.mem_ctrl.dram.bytesPerActivate::128-255        17639     10.58%     65.94% # Bytes accessed per row activation
system.mem_ctrl.dram.bytesPerActivate::256-383         7183      4.31%     70.24% # Bytes accessed per row activation
system.mem_ctrl.dram.bytesPerActivate::384-511         4930      2.96%     73.20% # Bytes accessed per row activation
system.mem_ctrl.dram.bytesPerActivate::512-639         4403      2.64%     75.84% # Bytes accessed per row activation
system.mem_ctrl.dram.bytesPerActivate::640-767         3724      2.23%     78.08% # Bytes accessed per row activation
system.mem_ctrl.dram.bytesPerActivate::768-895         3081      1.85%     79.92% # Bytes accessed per row activation
system.mem_ctrl.dram.bytesPerActivate::896-1023         2919      1.75%     81.68% # Bytes accessed per row activation
system.mem_ctrl.dram.bytesPerActivate::1024-1151        30547     18.32%    100.00% # Bytes accessed per row activation
system.mem_ctrl.dram.bytesPerActivate::total       166703                       # Bytes accessed per row activation
system.mem_ctrl.dram.bytesRead               31728640                       # Total number of bytes read from DRAM
system.mem_ctrl.dram.bytesWritten            22252800                       # Total number of bytes written to DRAM
system.mem_ctrl.dram.avgRdBW                67.078560                       # Average DRAM read bandwidth in MiBytes/s
system.mem_ctrl.dram.avgWrBW                47.045375                       # Average DRAM write bandwidth in MiBytes/s
system.mem_ctrl.dram.peakBW                  12800.00                       # Theoretical peak bandwidth in MiByte/s
system.mem_ctrl.dram.busUtil                     0.89                       # Data bus utilization in percentage
system.mem_ctrl.dram.busUtilRead                 0.52                       # Data bus utilization in percentage for reads
system.mem_ctrl.dram.busUtilWrite                0.37                       # Data bus utilization in percentage for writes
system.mem_ctrl.dram.pageHitRate                80.24                       # Row buffer hit rate, read and write combined
system.mem_ctrl.dram.power_state.pwrStateResidencyTicks::UNDEFINED 473007175000                       # Cumulative time (in ticks) in various power states
system.mem_ctrl.dram.rank0.actEnergy        606471600                       # Energy for activate commands per rank (pJ)
system.mem_ctrl.dram.rank0.preEnergy        322347300                       # Energy for precharge commands per rank (pJ)
system.mem_ctrl.dram.rank0.readEnergy      1782451020                       # Energy for read commands per rank (pJ)
system.mem_ctrl.dram.rank0.writeEnergy      906442560                       # Energy for write commands per rank (pJ)
system.mem_ctrl.dram.rank0.refreshEnergy 37338765360.000008                       # Energy for refresh commands per rank (pJ)
system.mem_ctrl.dram.rank0.actBackEnergy  37517700960                       # Energy for active background per rank (pJ)
system.mem_ctrl.dram.rank0.preBackEnergy 150040901760                       # Energy for precharge background per rank (pJ)
system.mem_ctrl.dram.rank0.actPowerDownEnergy            0                       # Energy for active power-down per rank (pJ)
system.mem_ctrl.dram.rank0.prePowerDownEnergy            0                       # Energy for precharge power-down per rank (pJ)
system.mem_ctrl.dram.rank0.selfRefreshEnergy            0                       # Energy for self refresh per rank (pJ)
system.mem_ctrl.dram.rank0.totalEnergy   228515080560                       # Total energy per rank (pJ)
system.mem_ctrl.dram.rank0.averagePower    483.111235                       # Core power per rank (mW)
system.mem_ctrl.dram.rank0.totalIdleTime            0                       # Total Idle time Per DRAM Rank
system.mem_ctrl.dram.rank0.pwrStateTime::IDLE 389506002750                       # Time in different power states
system.mem_ctrl.dram.rank0.pwrStateTime::REF  15794740000                       # Time in different power states
system.mem_ctrl.dram.rank0.pwrStateTime::SREF            0                       # Time in different power states
system.mem_ctrl.dram.rank0.pwrStateTime::PRE_PDN            0                       # Time in different power states
system.mem_ctrl.dram.rank0.pwrStateTime::ACT  67706432250                       # Time in different power states
system.mem_ctrl.dram.rank0.pwrStateTime::ACT_PDN            0                       # Time in different power states
system.mem_ctrl.dram.rank1.actEnergy        583787820                       # Energy for activate commands per rank (pJ)
system.mem_ctrl.dram.rank1.preEnergy        310290585                       # Energy for precharge commands per rank (pJ)
system.mem_ctrl.dram.rank1.readEnergy      1757275380                       # Energy for read commands per rank (pJ)
system.mem_ctrl.dram.rank1.writeEnergy      908551440                       # Energy for write commands per rank (pJ)
system.mem_ctrl.dram.rank1.refreshEnergy 37338765360.000008                       # Energy for refresh commands per rank (pJ)
system.mem_ctrl.dram.rank1.actBackEnergy  37560795810                       # Energy for active background per rank (pJ)
system.mem_ctrl.dram.rank1.preBackEnergy 150004611360                       # Energy for precharge background per rank (pJ)
system.mem_ctrl.dram.rank1.actPowerDownEnergy            0                       # Energy for active power-down per rank (pJ)
system.mem_ctrl.dram.rank1.prePowerDownEnergy            0                       # Energy for precharge power-down per rank (pJ)
system.mem_ctrl.dram.rank1.selfRefreshEnergy            0                       # Energy for self refresh per rank (pJ)
system.mem_ctrl.dram.rank1.totalEnergy   228464077755                       # Total energy per rank (pJ)
system.mem_ctrl.dram.rank1.averagePower    483.003408                       # Core power per rank (mW)
system.mem_ctrl.dram.rank1.totalIdleTime            0                       # Total Idle time Per DRAM Rank
system.mem_ctrl.dram.rank1.pwrStateTime::IDLE 389411212000                       # Time in different power states
system.mem_ctrl.dram.rank1.pwrStateTime::REF  15794740000                       # Time in different power states
system.mem_ctrl.dram.rank1.pwrStateTime::SREF            0                       # Time in different power states
system.mem_ctrl.dram.rank1.pwrStateTime::PRE_PDN            0                       # Time in different power states
system.mem_ctrl.dram.rank1.pwrStateTime::ACT  67801223000                       # Time in different power states
system.mem_ctrl.dram.rank1.pwrStateTime::ACT_PDN            0                       # Time in different power states
system.mem_ctrl.power_state.pwrStateResidencyTicks::UNDEFINED 473007175000                       # Cumulative time (in ticks) in various power states
system.membus.trans_dist::ReadResp             151794                       # Transaction distribution
system.membus.trans_dist::WritebackDirty       347772                       # Transaction distribution
system.membus.trans_dist::CleanEvict           144042                       # Transaction distribution
system.membus.trans_dist::ReadExReq            344625                       # Transaction distribution
system.membus.trans_dist::ReadExResp           344625                       # Transaction distribution
system.membus.trans_dist::ReadSharedReq        151794                       # Transaction distribution
system.membus.pkt_count_system.l2cache.mem_side_port::system.mem_ctrl.port      1484652                       # Packet count per connected requestor and responder (bytes)
system.membus.pkt_count_system.l2cache.mem_side_port::total      1484652                       # Packet count per connected requestor and responder (bytes)
system.membus.pkt_count::total                1484652                       # Packet count per connected requestor and responder (bytes)
system.membus.pkt_size_system.l2cache.mem_side_port::system.mem_ctrl.port     54028224                       # Cumulative packet size per connected requestor and responder (bytes)
system.membus.pkt_size_system.l2cache.mem_side_port::total     54028224                       # Cumulative packet size per connected requestor and responder (bytes)
system.membus.pkt_size::total                54028224                       # Cumulative packet size per connected requestor and responder (bytes)
system.membus.snoops                                0                       # Total snoops (count)
system.membus.snoopTraffic                          0                       # Total snoop traffic (bytes)
system.membus.snoop_fanout::samples            496419                       # Request fanout histogram
system.membus.snoop_fanout::mean                    0                       # Request fanout histogram
system.membus.snoop_fanout::stdev                   0                       # Request fanout histogram
system.membus.snoop_fanout::underflows              0      0.00%      0.00% # Request fanout histogram
system.membus.snoop_fanout::0                  496419    100.00%    100.00% # Request fanout histogram
system.membus.snoop_fanout::1                       0      0.00%    100.00% # Request fanout histogram
system.membus.snoop_fanout::overflows               0      0.00%    100.00% # Request fanout histogram
system.membus.snoop_fanout::min_value               0                       # Request fanout histogram
system.membus.snoop_fanout::max_value               0                       # Request fanout histogram
system.membus.snoop_fanout::total              496419                       # Request fanout histogram
system.membus.power_state.pwrStateResidencyTicks::UNDEFINED 473007175000                       # Cumulative time (in ticks) in various power states
system.membus.reqLayer2.occupancy           334001250                       # Layer occupancy (ticks)
system.membus.reqLayer2.utilization               0.1                       # Layer utilization (%)
system.membus.respLayer0.occupancy          248209500                       # Layer occupancy (ticks)
system.membus.respLayer0.utilization              0.1                       # Layer utilization (%)

---------- End Simulation Statistics   ----------
